*Heading
**This is the kirisoro.inp file for the papaer
**"Untethered Kirigami Soft Robots with Programmable Locomotion", Applied Physics Reviews(2023)。
************************************************************************
** this input file should be implemented with UEL subroutine uMag.for
**    1. user needs to define applied magnetic field:
**       unit directional vector and magnitude.
**    2. user needs to define material's mechanical properties: 
**       shear modulus (Gshear) and bulk modulus (Kbulk) for MAGNETIC DISKS and ELASTOMER BASE.
**    3. user needs to define kirigami soft robot's magnetization pattern:
**        each magnetic disks can be specified a magentization along x,y,z directions, respectively.
**    4. user needs to define kirigami soft robot's magnetic moment density:
**       components along x,y,z directions.
**
**	UNITS:	Length - meters, Force - Newtons,
**		Stress - Newton/meter^2 = Pa, Mass - kilograms,
**		Density - kg/meter^3, Energy - Joules
**
**  model description: 
**  A single-module kirigami soft robot with Y-axis symmetric magnetization pattern
**  and applied magnetic field along (0,1,0) with a  magnitude of 15 mT.
**
**  Implemented in Abaqus 2021
**  The uMag.for is created by Zhao et al.
**  Please refer to papers "Printing ferromagnetic domains for untethered fast-transforming soft materials, Nature(2018)"
** and "Mechanics of hard-magnetic soft materials, JMPS(2019)".
************************************************************************
*Parameter
** 
** final magnitude of the applied magnetic field (Tesla)
magFieldMag = 0.015
**
** applied magnetic field unit vector
magFieldVecX = 0.0
magFieldVecY = 1.0
magFieldVecZ = 0.0
**
**	MATERIAL PARAMETERS 
**
**A single-module YS kirigami soft robots
**
** initial magnetic moment density (A/m)
Mx1 = 110.0e3
Mx2 = -110.0e3
Mx3 = -110.0e3
Mx4 = 110.0e3
MxS = 0.0e3
My = 0.0
Mz = 0.0
**
** initial shear modulus (Pa)
Gshear = 200.e3
GshearS = 100.e3
**
** bulk modulus (Pa)
Kbulk = 100.0*Gshear
KbulkS = 100.0*GshearS
**
** number of body integration points
nInt = 8
**
** number of real material properties
nProps = 5
**
** number of integer material properties
nJProps = 1
**
************************************************************************
**		MODEL DEFINITION
************************************************************************
**
*Node, nset=Nall
      1, -0.00249999994, 0.000500000024,           0.
      2, -0.00324226986, -0.0014755138,           0.
      3, -0.0014999999, 0.000500000024,           0.
      4, -0.0014999999, 0.000500000024, 0.00300000003
      5, -0.00249999994, 0.000500000024, 0.00300000003
      6, -0.00324226986, -0.0014755138, 0.00300000003
      7, -0.0014999999, -0.00400000019,           0.
      8, -0.00549999997, -0.00400000019,           0.
      9, -0.00549999997, -0.00249999994,           0.
     10, -0.0014999999, -0.00400000019, 0.00300000003
     11, -0.00549999997, -0.00249999994, 0.00300000003
     12, -0.00549999997, -0.00400000019, 0.00300000003
     13, 0.00349999988, -0.00249999994, 0.00300000003
     14, 0.00349999988, -0.00400000019, 0.00300000003
     15, 0.00349999988, -0.00400000019,           0.
     16, 0.00349999988, -0.00249999994,           0.
     17, 0.000500000024, 0.000500000024, 0.00300000003
     18, -0.000499999966, 0.000500000024, 0.00300000003
     19, -0.000499999966, -0.00400000019, 0.00300000003
     20, -0.000499999966, 0.000500000024,           0.
** ... 5100 like lines cut
*User Element,Nodes=8,Type=U3,Iproperties=<nJProps>,Properties=<nProps>,Coordinates=3,Unsymm
1,2,3
*Element, type=U3
 1, 1271,  189, 1256, 3538,  185,    1,  188, 1253
 2, 3538, 1256, 1257, 3536, 1253,  188,  187, 1254
 3, 1272,  190, 1258, 3539, 1271,  189, 1256, 3538
 4, 3539, 1258, 1259, 3535, 3538, 1256, 1257, 3536
 5, 1273,    2, 1260, 3540, 1272,  190, 1258, 3539
 6, 3540, 1260, 1261, 3534, 3539, 1258, 1259, 3535
 7, 1274,  191, 1262, 3541, 1273,    2, 1260, 3540
 8, 3541, 1262, 1263, 3533, 3540, 1260, 1261, 3534
 9, 1275,  192, 1264, 3532, 1274,  191, 1262, 3541
10, 3532, 1264, 1265, 3531, 3541, 1262, 1263, 3533
11, 1276, 1277, 3538, 3536,  194,  193, 1253, 1254
12, 1277,  196, 1271, 3538,  193,    3,  185, 1253
13, 1278, 1279, 3539, 3535, 1276, 1277, 3538, 3536
14, 1279,  197, 1272, 3539, 1277,  196, 1271, 3538
15, 1280, 1281, 3540, 3534, 1278, 1279, 3539, 3535
16, 1281,  198, 1273, 3540, 1279,  197, 1272, 3539
17, 1282, 1283, 3541, 3533, 1280, 1281, 3540, 3534
18, 1283,  199, 1274, 3541, 1281,  198, 1273, 3540
19, 1284, 1285, 3532, 3531, 1282, 1283, 3541, 3533
20, 1285,  200, 1275, 3532, 1283,  199, 1274, 3541
** ... 3340 like lines cut
*Nset, nset=HMSM1
   23,   26,   29,   31,  163,  166,  168,  169,  175,  176,  271,  272,  273,  274,  275,  276
  277,  278,  279,  291,  292,  293,  294,  295,  296,  309,  310,  311, 1027, 1028, 1029, 1030
 1034, 1035, 1036, 1037, 1038, 1039, 1043, 1044, 1045, 1046, 1088, 1089, 1090, 1091, 1092, 1093
 1201, 1202, 1203, 1204, 1205, 1206, 1221, 1222, 1223, 1224, 1225, 1226, 1365, 1366, 1367, 1368
 1369, 1370, 1371, 1372, 1373, 1374, 1375, 1376, 1377, 1378, 1379, 1380, 1381, 1382, 2575, 2576
 2577, 2578, 2579, 2580, 2581, 2582, 2583, 2584, 2585, 2586, 2671, 2672, 2673, 2674, 2675, 2676
 2677, 2678, 2679, 2680, 2681, 2682, 2946, 2947, 2948, 2949, 2950, 2951, 2952, 2953, 2954, 2955
 2956, 2957, 2958, 2959, 2960, 2961, 2962, 2963, 3035, 3036, 3037, 3038, 3039, 3040, 3041, 3042
 3043, 3044, 3045, 3046, 3047, 3048, 3049, 3050, 3051, 3052, 3053, 3054, 3055, 3056, 3057, 3058
 3059, 3060, 3061, 3062, 3063, 3064, 3065, 3066, 3067, 3068, 3069, 3070, 3071, 3072, 3073, 3074
 3075, 3076, 3077, 3078, 3079, 3080, 3081, 3082, 3083, 3084, 3085, 3086, 3087, 3088, 3089, 3090
 3091, 3092, 3093, 3094, 3095, 3096, 3097, 3098, 3099, 3100, 3101, 3102, 3103, 3104, 3105, 3106
 3107, 3108, 3109, 3110, 3111, 3112, 3113, 3114, 3115, 3116, 3117, 3118, 3119, 3120, 3121, 3122
 3123, 3124, 3125, 3126, 3127, 3128, 3129, 3130, 3131, 3132, 3133, 3134, 3135, 3136, 3137, 3138
 3139, 3140, 3141, 3142, 3143, 3144, 3145, 3146, 3147, 3148, 3149, 3150, 4377, 4378, 4379, 4380
 4381, 4382, 4383, 4384, 4385, 4386, 4387, 4388, 4389, 4390, 4391, 4392, 4393, 4394, 4395, 4396
 4397, 4398, 4399, 4400, 4401, 4402, 4403, 4404, 4405, 4406, 4407, 4408, 4409, 4410, 4411, 4412
 4413, 4414, 4415, 4416, 4417, 4418, 4419, 4420, 4421, 4422, 4423, 4424, 4425, 4426, 4427, 4428
 4429, 4430, 4431, 4432, 4433, 4434, 4435, 4436, 4437, 4438, 4439, 4440, 4441, 4442, 4443, 4444
 4445, 4446, 4447, 4448, 4449, 4450, 4451, 4452, 4453, 4454, 4455, 4456, 4457, 4458, 4459, 4460
** ... 6 like lines cut
*Elset, elset=HMSM1, generate
 2185,  2460,     1
*Nset, nset=HMSM2
  117,  118,  121,  122,  172,  173,  177,  179,  181,  182,  773,  774,  775,  776,  777,  778
  779,  780,  781,  782,  784,  785,  786,  787,  788,  789,  790,  802,  803,  804, 1060, 1061
 1062, 1063, 1067, 1068, 1069, 1070, 1071, 1072, 1073, 1108, 1109, 1110, 1111, 1112, 1113, 1114
 1119, 1120, 1121, 1122, 1129, 1130, 1131, 1132, 1133, 1134, 1149, 1150, 1151, 1152, 1153, 1154
 2223, 2224, 2225, 2226, 2227, 2228, 2229, 2230, 2231, 2232, 2233, 2234, 2235, 2236, 2237, 2238
 2239, 2240, 2241, 2242, 2243, 2622, 2623, 2624, 2625, 2626, 2627, 2628, 2629, 2630, 2631, 2632
 2633, 2711, 2712, 2713, 2714, 2715, 2716, 2717, 2718, 2719, 2720, 2721, 2722, 2723, 2724, 2725
 2767, 2768, 2769, 2770, 2771, 2772, 2773, 2774, 2775, 2776, 2777, 2778, 2779, 2780, 2781, 2782
 2783, 2784, 3399, 3400, 3401, 3402, 3403, 3404, 3405, 3406, 3407, 3408, 3409, 3410, 3411, 3412
 3413, 3414, 3415, 3416, 3417, 3418, 3419, 3420, 3421, 3422, 3423, 3424, 3425, 3426, 3427, 3428
 3429, 3430, 3431, 3432, 3433, 3434, 3435, 3436, 3437, 3438, 3439, 3440, 3441, 3442, 3443, 3444
 3445, 3446, 3447, 3448, 3449, 3450, 3451, 3452, 3453, 3454, 3455, 3456, 3457, 3458, 3459, 3460
 3461, 3462, 3463, 3464, 3465, 3466, 3467, 3468, 3469, 3470, 3471, 3472, 3473, 3474, 3475, 3476
 3477, 3478, 3479, 3480, 3481, 3482, 3483, 3484, 3485, 3486, 3487, 3488, 3489, 3490, 3491, 3492
 3493, 3494, 3495, 3496, 3497, 3498, 3499, 3500, 3501, 3502, 3503, 3504, 3505, 3506, 3507, 3508
 3509, 3510, 3511, 3512, 3513, 3514, 3515, 3516, 3517, 3518, 3519, 3520, 3521, 3522, 3523, 3524
 3525, 3526, 3527, 3528, 3529, 3530, 4923, 4924, 4925, 4926, 4927, 4928, 4929, 4930, 4931, 4932
 4933, 4934, 4935, 4936, 4937, 4938, 4939, 4940, 4941, 4942, 4943, 4944, 4945, 4946, 4947, 4948
 4949, 4950, 4951, 4952, 4953, 4954, 4955, 4956, 4957, 4958, 4959, 4960, 4961, 4962, 4963, 4964
 4965, 4966, 4967, 4968, 4969, 4970, 4971, 4972, 4973, 4974, 4975, 4976, 4977, 4978, 4979, 4980
** ... 9 like lines cut
*Elset, elset=HMSM2, generate
 3049,  3360,     1
*Nset, nset=HMSM3
    1,    2,    5,    6,    9,   11,  156,  157,  159,  162,  186,  187,  188,  189,  190,  191
  192,  207,  208,  209,  210,  219,  220,  221,  959,  960,  961,  962,  963,  974,  975,  976
  977,  978,  979,  990,  991,  992,  993,  994, 1162, 1163, 1164, 1165, 1166, 1167, 1168, 1169
 1170, 1171, 1227, 1228, 1229, 1230, 1231, 1248, 1249, 1250, 1251, 1252, 1256, 1257, 1258, 1259
 1260, 1261, 1262, 1263, 1264, 1265, 1266, 1267, 1268, 1269, 1270, 2473, 2474, 2475, 2476, 2477
 2478, 2479, 2480, 2481, 2482, 2483, 2484, 2485, 2486, 2487, 2829, 2830, 2831, 2832, 2833, 2834
 2835, 2836, 2837, 2838, 2839, 2840, 2841, 2842, 2843, 3020, 3021, 3022, 3023, 3024, 3025, 3026
 3027, 3028, 3029, 3030, 3031, 3032, 3033, 3034, 3277, 3278, 3279, 3280, 3281, 3282, 3283, 3284
 3285, 3286, 3287, 3288, 3289, 3290, 3291, 3292, 3293, 3294, 3295, 3296, 3297, 3298, 3299, 3300
 3301, 3302, 3303, 3304, 3305, 3306, 3307, 3308, 3309, 3310, 3311, 3312, 3313, 3314, 3315, 3316
 3317, 3318, 3319, 3320, 3321, 3322, 3323, 3324, 3325, 3326, 3327, 3328, 3329, 3330, 3331, 3332
 3333, 3334, 3335, 3336, 3337, 3338, 3339, 3340, 3341, 3342, 3343, 3344, 3345, 3346, 3347, 3348
 3349, 3350, 3351, 3352, 3353, 3354, 3355, 3356, 3357, 3358, 3359, 3360, 3361, 3362, 3363, 3364
 3365, 3366, 3367, 3368, 3369, 3370, 3371, 3372, 3373, 3374, 3375, 3376, 3377, 3378, 3379, 3380
 3381, 3382, 3383, 3384, 3385, 3386, 3387, 3388, 3389, 3390, 3391, 3392, 3393, 3394, 3395, 3396
 3397, 3398, 4740, 4741, 4742, 4743, 4744, 4745, 4746, 4747, 4748, 4749, 4750, 4751, 4752, 4753
 4754, 4755, 4756, 4757, 4758, 4759, 4760, 4761, 4762, 4763, 4764, 4765, 4766, 4767, 4768, 4769
 4770, 4771, 4772, 4773, 4774, 4775, 4776, 4777, 4778, 4779, 4780, 4781, 4782, 4783, 4784, 4785
 4786, 4787, 4788, 4789, 4790, 4791, 4792, 4793, 4794, 4795, 4796, 4797, 4798, 4799, 4800, 4801
 4802, 4803, 4804, 4805, 4806, 4807, 4808, 4809, 4810, 4811, 4812, 4813, 4814, 4815, 4816, 4817
** ... 7 like lines cut
*Elset, elset=HMSM3, generate
 2761,  3048,     1
*Nset, nset=HMSM4
   13,   16,   17,   21,  148,  149,  151,  154,  183,  184,  224,  225,  226,  228,  229,  230
  231,  232,  233,  244,  245,  246,  247,  248,  249,  251,  252,  253,  923,  924,  925,  926
  927,  938,  939,  940,  941,  942,  943,  954,  955,  956,  957,  958,  995,  996,  997,  998
  999, 1000, 1015, 1016, 1017, 1018, 1019, 1020, 1186, 1187, 1188, 1189, 1190, 1191, 1192, 1193
 1311, 1312, 1313, 1314, 1315, 1316, 1317, 1318, 1319, 1320, 1321, 1322, 1323, 1324, 1325, 1326
 1327, 1328, 2427, 2428, 2429, 2430, 2431, 2432, 2433, 2434, 2435, 2436, 2437, 2438, 2439, 2440
 2441, 2526, 2527, 2528, 2529, 2530, 2531, 2532, 2533, 2534, 2535, 2536, 2537, 2538, 2539, 2540
 2541, 2542, 2543, 2885, 2886, 2887, 2888, 2889, 2890, 2891, 2892, 2893, 2894, 2895, 2896, 2897
 2898, 2899, 3151, 3152, 3153, 3154, 3155, 3156, 3157, 3158, 3159, 3160, 3161, 3162, 3163, 3164
 3165, 3166, 3167, 3168, 3169, 3170, 3171, 3172, 3173, 3174, 3175, 3176, 3177, 3178, 3179, 3180
 3181, 3182, 3183, 3184, 3185, 3186, 3187, 3188, 3189, 3190, 3191, 3192, 3193, 3194, 3195, 3196
 3197, 3198, 3199, 3200, 3201, 3202, 3203, 3204, 3205, 3206, 3207, 3208, 3209, 3210, 3211, 3212
 3213, 3214, 3215, 3216, 3217, 3218, 3219, 3220, 3221, 3222, 3223, 3224, 3225, 3226, 3227, 3228
 3229, 3230, 3231, 3232, 3233, 3234, 3235, 3236, 3237, 3238, 3239, 3240, 3241, 3242, 3243, 3244
 3245, 3246, 3247, 3248, 3249, 3250, 3251, 3252, 3253, 3254, 3255, 3256, 3257, 3258, 3259, 3260
 3261, 3262, 3263, 3264, 3265, 3266, 3267, 3268, 3269, 3270, 3271, 3272, 3273, 3274, 3275, 3276
 4551, 4552, 4553, 4554, 4555, 4556, 4557, 4558, 4559, 4560, 4561, 4562, 4563, 4564, 4565, 4566
 4567, 4568, 4569, 4570, 4571, 4572, 4573, 4574, 4575, 4576, 4577, 4578, 4579, 4580, 4581, 4582
 4583, 4584, 4585, 4586, 4587, 4588, 4589, 4590, 4591, 4592, 4593, 4594, 4595, 4596, 4597, 4598
 4599, 4600, 4601, 4602, 4603, 4604, 4605, 4606, 4607, 4608, 4609, 4610, 4611, 4612, 4613, 4614
** ... 8 like lines cut
*Elset, elset=HMSM4, generate
 2461,  2760,     1
*Nset, nset=SIL
    1,    2,    3,    4,    5,    6,    7,    8,    9,   10,   11,   12,   13,   14,   15,   16
   17,   18,   19,   20,   21,   22,   23,   24,   25,   26,   27,   28,   29,   30,   31,   32
   33,   34,   35,   36,   37,   38,   39,   40,   41,   42,   43,   44,   45,   46,   47,   48
   49,   50,   51,   52,   53,   54,   55,   56,   57,   58,   59,   60,   61,   62,   63,   64
   65,   66,   67,   68,   69,   70,   71,   72,   73,   74,   75,   76,   77,   78,   79,   80
   81,   82,   83,   84,   85,   86,   87,   88,   89,   90,   91,   92,   93,   94,   95,   96
   97,   98,   99,  100,  101,  102,  103,  104,  105,  106,  107,  108,  109,  110,  111,  112
  113,  114,  115,  116,  117,  118,  119,  120,  121,  122,  123,  124,  125,  126,  127,  128
  129,  130,  131,  132,  133,  134,  135,  136,  137,  138,  139,  140,  141,  142,  143,  144
  145,  146,  147,  148,  149,  150,  151,  152,  153,  154,  155,  156,  157,  158,  159,  160
  161,  162,  163,  164,  165,  166,  167,  168,  169,  170,  171,  172,  173,  174,  175,  176
  177,  178,  179,  180,  181,  182,  183,  184,  185,  186,  187,  188,  189,  190,  191,  192
  193,  194,  195,  196,  197,  198,  199,  200,  201,  202,  203,  204,  205,  206,  207,  208
  209,  210,  211,  212,  213,  214,  215,  216,  217,  218,  219,  220,  221,  222,  223,  224
  225,  226,  227,  228,  229,  230,  231,  232,  233,  234,  235,  236,  237,  238,  239,  240
  241,  242,  243,  244,  245,  246,  247,  248,  249,  250,  251,  252,  253,  254,  255,  256
  257,  258,  259,  260,  261,  262,  263,  264,  265,  266,  267,  268,  269,  270,  271,  272
  273,  274,  275,  276,  277,  278,  279,  280,  281,  282,  283,  284,  285,  286,  287,  288
  289,  290,  291,  292,  293,  294,  295,  296,  297,  298,  299,  300,  301,  302,  303,  304
  305,  306,  307,  308,  309,  310,  311,  312,  313,  314,  315,  316,  317,  318,  319,  320
** ... 223 like lines cut
*Elset, elset=SIL, generate
    1,  2184,     1
*Nset, nset=BC1
  49,  50, 101, 102, 374, 375, 376, 724, 725, 726
*Elset, elset=BC1
  253,  254,  255,  256,  281,  282,  283,  284, 1149, 1150, 1151, 1152, 1309, 1310, 1311, 1312
*Nset, nset=BC2
 113, 116, 136, 137, 760, 761, 762, 881, 882, 883
*Elset, elset=BC2
 1165, 1166, 1167, 1168, 1261, 1262, 1263, 1264, 1345, 1346, 1347, 1348, 1361, 1362, 1363, 1364
********************************************************************************************************
** Make the Dummy Mesh for Visualization
**
*Element, type=C3D8, elset=ElDummy 
4001, 1271, 189, 1256, 3538, 185, 1, 188, 1253
4002, 3538, 1256, 1257, 3536, 1253, 188, 187, 1254
4003, 1272, 190, 1258, 3539, 1271, 189, 1256, 3538
4004, 3539, 1258, 1259, 3535, 3538, 1256, 1257, 3536
4005, 1273, 2, 1260, 3540, 1272, 190, 1258, 3539
4006, 3540, 1260, 1261, 3534, 3539, 1258, 1259, 3535
4007, 1274, 191, 1262, 3541, 1273, 2, 1260, 3540
4008, 3541, 1262, 1263, 3533, 3540, 1260, 1261, 3534
4009, 1275, 192, 1264, 3532, 1274, 191, 1262, 3541
4010, 3532, 1264, 1265, 3531, 3541, 1262, 1263, 3533
4011, 1276, 1277, 3538, 3536, 194, 193, 1253, 1254
4012, 1277, 196, 1271, 3538, 193, 3, 185, 1253
4013, 1278, 1279, 3539, 3535, 1276, 1277, 3538, 3536
4014, 1279, 197, 1272, 3539, 1277, 196, 1271, 3538
4015, 1280, 1281, 3540, 3534, 1278, 1279, 3539, 3535
4016, 1281, 198, 1273, 3540, 1279, 197, 1272, 3539
4017, 1282, 1283, 3541, 3533, 1280, 1281, 3540, 3534
4018, 1283, 199, 1274, 3541, 1281, 198, 1273, 3540
4019, 1284, 1285, 3532, 3531, 1282, 1283, 3541, 3533
4020, 1285, 200, 1275, 3532, 1283, 199, 1274, 3541
** ... 3340 like lines cut
**  
************************************************************************
**			MATERIAL DEFINITION
************************************************************************
**
** Material properties for the real material
**
*uel property,elset=HMSM1
<Gshear>,<Kbulk>,<Mx1>,<My>,<Mz>,<nInt>
*uel property,elset=HMSM2
<Gshear>,<Kbulk>,<Mx2>,<My>,<Mz>,<nInt>
*uel property,elset=HMSM3
<Gshear>,<Kbulk>,<Mx3>,<My>,<Mz>,<nInt>
*uel property,elset=HMSM4
<Gshear>,<Kbulk>,<Mx4>,<My>,<Mz>,<nInt>
*uel property,elset=SIL
<GshearS>,<KbulkS>,<MxS>,<My>,<Mz>,<nInt>
**
*Material, name=Material-1
*Elastic
1.e-20
*Conductivity
1.0
*Density
1.0
**
** Dummy mesh material properties
**
*Solid section, elset=ElDummy, material=Material-2
**
*Material, name=Material-2
*Elastic
1.e-20
*Density
2500.0
**
************************************************************************
** INTERACTION PROPERTIES
************************************************************************
** 
*Surface Interaction, name=IntProp-1
1.,
*Friction
 0.3,
*Surface Behavior, pressure-overclosure=LINEAR
1e+08,
** 
** INTERACTIONS
** 
** Interaction: Int-1
*Contact, op=NEW
*Contact Inclusions, ALL EXTERIOR
*Contact Property Assignment
 ,  , IntProp-1
**
************************************************************************
**			INITIAL CONDITIONS
************************************************************************
**
**
*Initial conditions, type=field, variable=1
Nall,<magFieldVecX>
*Initial conditions, type=field, variable=2
Nall,<magFieldVecY>
*Initial conditions, type=field, variable=3
Nall,<magFieldVecZ>
*Initial conditions, type=field, variable=4
Nall,<magFieldMag>
**
************************************************************************
**			AMPLITUDE DEFINITION
************************************************************************
*Amplitude, name=magFieldMagAmp
0.0,0.0,1.,<magFieldMag>
**
************************************************************************
**			STEP DEFINITION
************************************************************************
*Step, Name=Deform, nlgeom=yes, inc=100000
*Static
0.02,1.,1.e-6,1.
*Controls, Parameters=Time Incrementation
,,,,,,,10,,,,,,
**
************************************************************************
**			BOUNDARY CONDITIONS
************************************************************************
** BOUNDARY CONDITIONS
** 
** Name: BC-1 Type: Symmetry/Antisymmetry/Encastre
*Boundary
BC1, XASYMM
** Name: BC-2 Type: Symmetry/Antisymmetry/Encastre
*Boundary
BC2, YASYMM
**
************************************************************************
**			PREDEFINED FIELD
************************************************************************
** 
*Field, variable=1
Nall,<magFieldVecX>
*Field, variable=2
Nall,<magFieldVecY>
*Field, variable=3
Nall,<magFieldVecZ>
*Field, variable=4, amplitude=magFieldMagAmp
Nall,1.0
**
************************************************************************
**			OUTPUT
************************************************************************
*Output, field
*node output, nset=Nall
u,RF
*element output, elset=ElDummy
le,ne,SDV
*Element Output, elset=ElDummy, Position=Integration Points
COORD, IVOL
**
*Output, history, variable=PRESELECT
*End Step